Version 4
SHEET 1 1208 680
WIRE 608 -464 560 -464
WIRE 448 -368 448 -464
WIRE 608 -368 608 -464
WIRE 608 -368 560 -368
WIRE 448 -272 448 -368
WIRE 608 -272 608 -368
WIRE 608 -272 560 -272
WIRE -48 -224 -48 -384
WIRE -48 -224 -160 -224
WIRE 48 -224 48 -240
WIRE 48 -224 -48 -224
WIRE 224 -224 224 -240
WIRE 224 -224 160 -224
WIRE 448 -224 448 -272
WIRE 448 -224 336 -224
WIRE 608 -224 608 -272
WIRE 784 -224 784 -304
WIRE 784 -224 608 -224
WIRE 48 -208 48 -224
WIRE 224 -208 224 -224
WIRE 848 -208 848 -256
WIRE 1008 -208 848 -208
WIRE 1040 -208 1008 -208
WIRE 1152 -208 1104 -208
WIRE 448 -176 448 -224
WIRE 608 -176 608 -224
WIRE 608 -176 560 -176
WIRE 848 -176 848 -208
WIRE 1152 -176 1152 -208
WIRE 784 -128 784 -224
WIRE -400 -112 -672 -112
WIRE -240 -96 -240 -224
WIRE 448 -80 448 -176
WIRE 608 -80 608 -176
WIRE 608 -80 560 -80
WIRE -672 -48 -672 -112
WIRE -400 0 -400 -32
WIRE -240 0 -240 -32
WIRE -240 0 -400 0
WIRE -400 16 -400 0
WIRE 448 16 448 -80
WIRE 608 16 608 -80
WIRE 608 16 560 16
WIRE -48 160 -48 -224
WIRE 208 160 -48 160
WIRE 1008 160 1008 -208
WIRE 1008 160 288 160
WIRE -48 208 -48 160
FLAG -672 32 0
FLAG -400 96 0
FLAG 848 -80 0
FLAG -48 272 0
FLAG -944 -80 0
FLAG -944 -160 Vcc
FLAG -48 -464 Vcc
FLAG 848 -352 Vcc
FLAG 1152 -96 0
SYMBOL CD4000\\CD4093B 272 -288 R0
SYMATTR InstName U1
SYMBOL CD4000\\CD40106B 496 -320 R0
SYMATTR InstName U2
SYMBOL voltage -672 -64 R0
WINDOW 123 0 0 Left 2
WINDOW 39 0 0 Left 2
SYMATTR InstName Vin
SYMATTR Value SINE(0 1 100)
SYMBOL res -416 -128 R0
SYMATTR InstName R1
SYMATTR Value 1
SYMBOL res -416 0 R0
SYMATTR InstName R2
SYMATTR Value 1k
SYMBOL cap -256 -96 R0
SYMATTR InstName C1
SYMATTR Value 10µ
SYMBOL res -144 -240 R90
WINDOW 0 0 56 VBottom 2
WINDOW 3 32 56 VTop 2
SYMATTR InstName Ra
SYMATTR Value 120k
SYMBOL res -32 -368 R180
WINDOW 0 36 76 Left 2
WINDOW 3 36 40 Left 2
SYMATTR InstName R4
SYMATTR Value 500k
SYMBOL CD4000\\CD4093B 96 -288 R0
SYMATTR InstName U3
SYMBOL CD4000\\CD40106B 496 -512 R0
SYMATTR InstName U4
SYMBOL CD4000\\CD40106B 496 -416 R0
SYMATTR InstName U5
SYMBOL CD4000\\CD40106B 496 -32 R0
SYMATTR InstName U6
SYMBOL CD4000\\CD40106B 496 -224 R0
SYMATTR InstName U7
SYMBOL CD4000\\CD40106B 496 -128 R0
SYMATTR InstName U8
SYMBOL npn 784 -352 R0
SYMATTR InstName Q1
SYMATTR Value Qbd139
SYMBOL pnp 784 -176 R0
SYMATTR InstName Q2
SYMATTR Value Qbd140
SYMBOL res 304 144 R90
WINDOW 0 0 56 VBottom 2
WINDOW 3 32 56 VTop 2
SYMATTR InstName Rb
SYMATTR Value 120k
SYMBOL cap -64 208 R0
SYMATTR InstName C2
SYMATTR Value 100p
SYMBOL voltage -944 -176 R0
SYMATTR InstName Vin1
SYMATTR Value 15
SYMBOL cap 1104 -224 R90
WINDOW 0 0 32 VBottom 2
WINDOW 3 32 32 VTop 2
SYMATTR InstName C3
SYMATTR Value 100µ
SYMBOL res 1136 -192 R0
SYMATTR InstName R3
SYMATTR Value 8
TEXT 192 232 Left 2 !.include CD4000.lib
TEXT 192 272 Left 2 !.include BD139.LIB
TEXT 192 312 Left 2 !.include BD140.LIB
TEXT -976 336 Left 2 !.tran 1
